tests/fuzzer/corpus_json/21_random_008.json
{
  "version": "1.0",
  "type": "input",
  "is_batch": false,
  "attributes": {},
  "data": {
    "node": [
      {
        "id": 0,
        "u_rated": 10000.0
      },
      {
        "id": 1,
        "u_rated": 10000.0
      },
      {
        "id": 2,
        "u_rated": 10000.0
      },
      {
        "id": 3,
        "u_rated": 10000.0
      },
      {
        "id": 4,
        "u_rated": 10000.0
      }
    ],
    "source": [
      {
        "id": 5,
        "node": 0,
        "status": 1,
        "u_ref": 0.9252661797301719,
        "u_ref_angle": 0.0,
        "sk": 962298806.3307993,
        "rx_ratio": 0.35240846143580395,
        "z01_ratio": 1.0
      },
      {
        "id": 6,
        "node": 4,
        "status": 1,
        "u_ref": 1.0,
        "u_ref_angle": 0.0,
        "sk": 247516240.83059216,
        "rx_ratio": 0.1,
        "z01_ratio": 1.0
      }
    ],
    "line": [
      {
        "id": 7,
        "from_node": 0,
        "to_node": 1,
        "from_status": 1,
        "to_status": 1,
        "r1": 4.995642695812895,
        "x1": 1.046988159444564,
        "c1": 6.41868435072107e-07,
        "tan1": 0.0,
        "r0": 0.3,
        "x0": 0.3,
        "c0": 1e-09,
        "tan0": 0.0,
        "i_n": 464.54242514467273
      },
      {
        "id": 8,
        "from_node": 1,
        "to_node": 2,
        "from_status": 1,
        "to_status": 1,
        "r1": 2.2656621556907144,
        "x1": 2.4749134694458883,
        "c1": 1.9223084224268214e-07,
        "tan1": 0.0,
        "r0": 0.3,
        "x0": 0.3,
        "c0": 1e-09,
        "tan0": 0.0,
        "i_n": 832.2160608966419
      },
      {
        "id": 9,
        "from_node": 2,
        "to_node": 3,
        "from_status": 1,
        "to_status": 1,
        "r1": 0.447828117202948,
        "x1": 1.1709147974485268,
        "c1": 1.999130622418077e-08,
        "tan1": 0.0,
        "r0": 0.3,
        "x0": 0.3,
        "c0": 1e-09,
        "tan0": 0.0,
        "i_n": 274.09978639316586
      },
      {
        "id": 10,
        "from_node": 3,
        "to_node": 4,
        "from_status": 1,
        "to_status": 1,
        "r1": 2.038319314804786,
        "x1": 4.510321502058142,
        "c1": 3.7907542084158905e-07,
        "tan1": 0.0,
        "r0": 0.3,
        "x0": 0.3,
        "c0": 1e-09,
        "tan0": 0.0,
        "i_n": 122.59361800799192
      }
    ],
    "sym_load": [
      {
        "id": 11,
        "node": 1,
        "status": 1,
        "type": 0,
        "p_specified": -22726.156383502544,
        "q_specified": 6590.644922436048
      },
      {
        "id": 12,
        "node": 2,
        "status": 1,
        "type": 0,
        "p_specified": -32312.28257057193,
        "q_specified": 3826.011432119445
      },
      {
        "id": 13,
        "node": 3,
        "status": 1,
        "type": 2,
        "p_specified": 3362.227829359399,
        "q_specified": -5841.673525938909
      }
    ]
  }
}